@<TRIPOS>MOLECULE
ZINC00000053
   20    20     0     0     0
SMALL
USER_CHARGES

@<TRIPOS>ATOM
      1 C1         -1.4238    1.4221    1.2577 C.3       1 <0>        -0.1370
      2 C2         -1.3441   -0.0813    1.1904 C.2       1 <0>         0.4790
      3 O1         -1.4532   -0.7378    2.1988 O.2       1 <0>        -0.5137
      4 O2         -1.1519   -0.6914    0.0093 O.3       1 <0>        -0.2785
      5 C3         -0.9822   -2.0375    0.0080 C.ar      1 <0>         0.1140
      6 C4          0.2935   -2.5790    0.0577 C.ar      1 <0>        -0.1438
      7 C5          0.4647   -3.9491    0.0557 C.ar      1 <0>        -0.1168
      8 C6         -0.6330   -4.7933    0.0047 C.ar      1 <0>        -0.1375
      9 C7         -1.9078   -4.2739   -0.0447 C.ar      1 <0>        -0.0755
     10 C8         -2.0966   -2.8882   -0.0379 C.ar      1 <0>        -0.1363
     11 C9         -3.4564   -2.3257   -0.0844 C.2       1 <0>         0.5228
     12 O3         -4.4256   -3.0711   -0.1243 O.co2     1 <0>        -0.6853
     13 O4         -3.6170   -1.1130   -0.0830 O.co2     1 <0>        -0.6764
     14 H1         -1.5815    1.7317    2.2908 H         1 <0>         0.0951
     15 H2         -0.4932    1.8522    0.8875 H         1 <0>         0.0914
     16 H3         -2.2544    1.7698    0.6434 H         1 <0>         0.1039
     17 H4          1.1543   -1.9280    0.0976 H         1 <0>         0.1207
     18 H5          1.4605   -4.3654    0.0938 H         1 <0>         0.1210
     19 H6         -0.4882   -5.8635    0.0032 H         1 <0>         0.1200
     20 H7         -2.7604   -4.9357   -0.0844 H         1 <0>         0.1328
@<TRIPOS>BOND
     1    1    2 1
     2    1   14 1
     3    1   15 1
     4    1   16 1
     5    2    3 2
     6    2    4 1
     7    4    5 1
     8    5   10 ar
     9    5    6 ar
    10    6    7 ar
    11    6   17 1
    12    7    8 ar
    13    7   18 1
    14    8    9 ar
    15    8   19 1
    16    9   10 ar
    17    9   20 1
    18   10   11 1
    19   11   12 2
    20   11   13 1
